*SPEF "ieee 1481-1999"
*DESIGN "top"
*DATE "11:11:11 Fri 11 11, 1111"
*VENDOR "OpenRCX"
*PROGRAM "Parallel Extraction"
*VERSION "1.0"
*DESIGN_FLOW "NAME_SCOPE LOCAL" "PIN_CAP NONE"
*DIVIDER /
*DELIMITER :
*BUS_DELIMITER []
*T_UNIT 1 NS
*C_UNIT 1 PF
*R_UNIT 1 OHM
*L_UNIT 1 HENRY

*NAME_MAP
*3 detector_in[0]
*4 detector_in[1]
*5 phase_map_out[0]
*6 phase_map_out[1]
*7 _0_
*8 _1_
*9 net1
*10 net2
*11 net3
*12 net4
*13 FILLER_0_0_18
*14 FILLER_0_0_26
*15 FILLER_0_0_29
*16 FILLER_0_0_41
*17 FILLER_0_0_6
*18 FILLER_0_10_15
*19 FILLER_0_10_27
*20 FILLER_0_10_29
*21 FILLER_0_10_3
*22 FILLER_0_10_41
*23 FILLER_0_10_47
*24 FILLER_0_11_15
*25 FILLER_0_11_27
*26 FILLER_0_11_3
*27 FILLER_0_11_39
*28 FILLER_0_11_47
*29 FILLER_0_12_18
*30 FILLER_0_12_26
*31 FILLER_0_12_29
*32 FILLER_0_12_41
*33 FILLER_0_12_6
*34 FILLER_0_1_15
*35 FILLER_0_1_27
*36 FILLER_0_1_3
*37 FILLER_0_1_39
*38 FILLER_0_1_47
*39 FILLER_0_2_15
*40 FILLER_0_2_27
*41 FILLER_0_2_29
*42 FILLER_0_2_3
*43 FILLER_0_2_41
*44 FILLER_0_2_47
*45 FILLER_0_3_15
*46 FILLER_0_3_27
*47 FILLER_0_3_3
*48 FILLER_0_3_39
*49 FILLER_0_3_47
*50 FILLER_0_4_15
*51 FILLER_0_4_27
*52 FILLER_0_4_3
*53 FILLER_0_4_32
*54 FILLER_0_4_44
*55 FILLER_0_5_11
*56 FILLER_0_5_16
*57 FILLER_0_5_28
*58 FILLER_0_5_3
*59 FILLER_0_5_40
*60 FILLER_0_6_13
*61 FILLER_0_6_25
*62 FILLER_0_6_29
*63 FILLER_0_6_3
*64 FILLER_0_6_41
*65 FILLER_0_6_47
*66 FILLER_0_6_9
*67 FILLER_0_7_15
*68 FILLER_0_7_27
*69 FILLER_0_7_3
*70 FILLER_0_7_39
*71 FILLER_0_7_47
*72 FILLER_0_8_15
*73 FILLER_0_8_27
*74 FILLER_0_8_29
*75 FILLER_0_8_3
*76 FILLER_0_8_41
*77 FILLER_0_8_47
*78 FILLER_0_9_15
*79 FILLER_0_9_27
*80 FILLER_0_9_3
*81 FILLER_0_9_39
*82 FILLER_0_9_47
*83 PHY_0
*84 PHY_1
*85 PHY_10
*86 PHY_11
*87 PHY_12
*88 PHY_13
*89 PHY_14
*90 PHY_15
*91 PHY_16
*92 PHY_17
*93 PHY_18
*94 PHY_19
*95 PHY_2
*96 PHY_20
*97 PHY_21
*98 PHY_22
*99 PHY_23
*100 PHY_24
*101 PHY_25
*102 PHY_3
*103 PHY_4
*104 PHY_5
*105 PHY_6
*106 PHY_7
*107 PHY_8
*108 PHY_9
*109 TAP_26
*110 TAP_27
*111 TAP_28
*112 TAP_29
*113 TAP_30
*114 TAP_31
*115 TAP_32
*116 _2_
*117 _3_
*118 _4_
*119 _5_
*120 input1
*121 input2
*122 output3
*123 output4

*PORTS
detector_in[0] I
detector_in[1] I
phase_map_out[0] O
phase_map_out[1] O

*D_NET *3 0.00150771
*CONN
*P detector_in[0] I
*I *120:A I *D sky130_fd_sc_hd__clkbuf_1
*CAP
1 detector_in[0] 0.000753856
2 *120:A 0
3 *3:9 0.000753856
*RES
1 detector_in[0] *3:9 30.9914
2 *3:9 *120:A 23
*END

*D_NET *4 0.000528197
*CONN
*P detector_in[1] I
*I *121:A I *D sky130_fd_sc_hd__clkbuf_1
*CAP
1 detector_in[1] 0.000264098
2 *121:A 0.000264098
*RES
1 detector_in[1] *121:A 49.1767
*END

*D_NET *5 0.00140966
*CONN
*P phase_map_out[0] O
*I *122:X O *D sky130_fd_sc_hd__clkbuf_4
*CAP
1 phase_map_out[0] 0.00035735
2 *122:X 0.000347479
3 *5:8 0.000704828
*RES
1 *122:X *5:8 43.8621
2 *5:8 phase_map_out[0] 7.99571
*END

*D_NET *6 0.000607097
*CONN
*P phase_map_out[1] O
*I *123:X O *D sky130_fd_sc_hd__clkbuf_4
*CAP
1 phase_map_out[1] 0.000303549
2 *123:X 0.000303549
*RES
1 *123:X phase_map_out[1] 48.5851
*END

*D_NET *7 0.00193416
*CONN
*I *117:A I *D sky130_fd_sc_hd__clkbuf_1
*I *116:X O *D sky130_fd_sc_hd__clkbuf_1
*CAP
1 *117:A 0.000231914
2 *116:X 0.000660972
3 *7:8 0.000892885
4 *117:A *8:14 0
5 *117:A *11:12 0.000148391
*RES
1 *116:X *7:8 46.2443
2 *7:8 *117:A 43.075
*END

*D_NET *8 0.003741
*CONN
*I *119:A I *D sky130_fd_sc_hd__clkbuf_1
*I *118:X O *D sky130_fd_sc_hd__or2_1
*CAP
1 *119:A 0
2 *118:X 0.000617169
3 *8:14 0.0010176
4 *8:6 0.00163477
5 *8:6 *10:23 0.000384805
6 *8:14 *12:6 8.66615e-05
7 *117:A *8:14 0
*RES
1 *118:X *8:6 35.5321
2 *8:6 *8:14 49.8236
3 *8:14 *119:A 23
*END

*D_NET *9 0.00657498
*CONN
*I *118:A I *D sky130_fd_sc_hd__or2_1
*I *120:X O *D sky130_fd_sc_hd__clkbuf_1
*CAP
1 *118:A 0
2 *120:X 0.00144601
3 *9:10 0.00136735
4 *9:6 0.00281336
5 *9:10 *12:12 0.000948252
*RES
1 *120:X *9:6 41.7257
2 *9:6 *9:10 45.4293
3 *9:10 *118:A 38
*END

*D_NET *10 0.00424224
*CONN
*I *118:B I *D sky130_fd_sc_hd__or2_1
*I *116:A I *D sky130_fd_sc_hd__clkbuf_1
*I *121:X O *D sky130_fd_sc_hd__clkbuf_1
*CAP
1 *118:B 0
2 *116:A 0
3 *121:X 9.53488e-05
4 *10:23 0.000923663
5 *10:14 0.000909708
6 *10:8 0.00192872
7 *8:6 *10:23 0.000384805
*RES
1 *121:X *10:8 39.5536
2 *10:8 *10:14 32.4621
3 *10:14 *116:A 23
4 *10:8 *10:23 32.7729
5 *10:23 *118:B 23
*END

*D_NET *11 0.00301304
*CONN
*I *122:A I *D sky130_fd_sc_hd__clkbuf_4
*I *117:X O *D sky130_fd_sc_hd__clkbuf_1
*CAP
1 *122:A 0
2 *117:X 0
3 *11:12 0.00143232
4 *11:6 0.00143232
5 *117:A *11:12 0.000148391
*RES
1 *117:X *11:6 38
2 *11:6 *11:12 42.1357
3 *11:12 *122:A 23
*END

*D_NET *12 0.00406508
*CONN
*I *123:A I *D sky130_fd_sc_hd__clkbuf_4
*I *119:X O *D sky130_fd_sc_hd__clkbuf_1
*CAP
1 *123:A 0
2 *119:X 0.0010128
3 *12:12 0.000502279
4 *12:6 0.00151508
5 *8:14 *12:6 8.66615e-05
6 *9:10 *12:12 0.000948252
*RES
1 *119:X *12:6 36.485
2 *12:6 *12:12 43.5264
3 *12:12 *123:A 23
*END
