*SPEF "ieee 1481-1999"
*DESIGN "top"
*DATE "11:11:11 Fri 11 11, 1111"
*VENDOR "OpenRCX"
*PROGRAM "Parallel Extraction"
*VERSION "1.0"
*DESIGN_FLOW "NAME_SCOPE LOCAL" "PIN_CAP NONE"
*DIVIDER /
*DELIMITER :
*BUS_DELIMITER []
*T_UNIT 1 NS
*C_UNIT 1 PF
*R_UNIT 1 OHM
*L_UNIT 1 HENRY

*NAME_MAP
*3 detector_in[0]
*4 detector_in[1]
*5 phase_map_out[0]
*6 phase_map_out[1]
*7 _0_
*8 _1_
*9 net1
*10 net2
*11 net3
*12 net4
*13 FILLER_0_0_18
*14 FILLER_0_0_26
*15 FILLER_0_0_29
*16 FILLER_0_0_41
*17 FILLER_0_0_6
*18 FILLER_0_10_15
*19 FILLER_0_10_27
*20 FILLER_0_10_29
*21 FILLER_0_10_3
*22 FILLER_0_10_41
*23 FILLER_0_10_47
*24 FILLER_0_11_15
*25 FILLER_0_11_21
*26 FILLER_0_11_25
*27 FILLER_0_11_3
*28 FILLER_0_11_30
*29 FILLER_0_11_42
*30 FILLER_0_12_18
*31 FILLER_0_12_26
*32 FILLER_0_12_29
*33 FILLER_0_12_41
*34 FILLER_0_12_6
*35 FILLER_0_1_15
*36 FILLER_0_1_24
*37 FILLER_0_1_29
*38 FILLER_0_1_3
*39 FILLER_0_1_41
*40 FILLER_0_1_47
*41 FILLER_0_2_15
*42 FILLER_0_2_27
*43 FILLER_0_2_29
*44 FILLER_0_2_3
*45 FILLER_0_2_41
*46 FILLER_0_2_47
*47 FILLER_0_3_15
*48 FILLER_0_3_27
*49 FILLER_0_3_3
*50 FILLER_0_3_39
*51 FILLER_0_3_47
*52 FILLER_0_4_15
*53 FILLER_0_4_27
*54 FILLER_0_4_29
*55 FILLER_0_4_3
*56 FILLER_0_4_41
*57 FILLER_0_4_47
*58 FILLER_0_5_15
*59 FILLER_0_5_27
*60 FILLER_0_5_3
*61 FILLER_0_5_39
*62 FILLER_0_5_47
*63 FILLER_0_6_15
*64 FILLER_0_6_27
*65 FILLER_0_6_29
*66 FILLER_0_6_3
*67 FILLER_0_6_41
*68 FILLER_0_6_47
*69 FILLER_0_7_15
*70 FILLER_0_7_27
*71 FILLER_0_7_3
*72 FILLER_0_7_39
*73 FILLER_0_7_47
*74 FILLER_0_8_15
*75 FILLER_0_8_27
*76 FILLER_0_8_29
*77 FILLER_0_8_3
*78 FILLER_0_8_41
*79 FILLER_0_8_47
*80 FILLER_0_9_15
*81 FILLER_0_9_27
*82 FILLER_0_9_3
*83 FILLER_0_9_39
*84 FILLER_0_9_47
*85 PHY_0
*86 PHY_1
*87 PHY_10
*88 PHY_11
*89 PHY_12
*90 PHY_13
*91 PHY_14
*92 PHY_15
*93 PHY_16
*94 PHY_17
*95 PHY_18
*96 PHY_19
*97 PHY_2
*98 PHY_20
*99 PHY_21
*100 PHY_22
*101 PHY_23
*102 PHY_24
*103 PHY_25
*104 PHY_3
*105 PHY_4
*106 PHY_5
*107 PHY_6
*108 PHY_7
*109 PHY_8
*110 PHY_9
*111 TAP_26
*112 TAP_27
*113 TAP_28
*114 TAP_29
*115 TAP_30
*116 TAP_31
*117 TAP_32
*118 _2_
*119 _3_
*120 _4_
*121 _5_
*122 input1
*123 input2
*124 output3
*125 output4

*PORTS
detector_in[0] I
detector_in[1] I
phase_map_out[0] O
phase_map_out[1] O

*D_NET *3 0.00143417
*CONN
*P detector_in[0] I
*I *122:A I *D sky130_fd_sc_hd__clkbuf_1
*CAP
1 detector_in[0] 0.000717087
2 *122:A 0.000717087
*RES
1 detector_in[0] *122:A 27.5857
*END

*D_NET *4 0.000481666
*CONN
*P detector_in[1] I
*I *123:A I *D sky130_fd_sc_hd__buf_1
*CAP
1 detector_in[1] 0.000240833
2 *123:A 0.000240833
*RES
1 detector_in[1] *123:A 19.9411
*END

*D_NET *5 0.00133898
*CONN
*P phase_map_out[0] O
*I *124:X O *D sky130_fd_sc_hd__clkbuf_4
*CAP
1 phase_map_out[0] 0.000669489
2 *124:X 0.000669489
*RES
1 *124:X phase_map_out[0] 25.7464
*END

*D_NET *6 0.000666973
*CONN
*P phase_map_out[1] O
*I *125:X O *D sky130_fd_sc_hd__buf_2
*CAP
1 phase_map_out[1] 0.000333487
2 *125:X 0.000333487
*RES
1 *125:X phase_map_out[1] 20.2096
*END

*D_NET *7 0.000229819
*CONN
*I *119:A I *D sky130_fd_sc_hd__clkbuf_1
*I *118:X O *D sky130_fd_sc_hd__clkbuf_1
*CAP
1 *119:A 0.000114909
2 *118:X 0.000114909
*RES
1 *118:X *119:A 20.6893
*END

*D_NET *8 0.000159521
*CONN
*I *121:A I *D sky130_fd_sc_hd__clkbuf_1
*I *120:X O *D sky130_fd_sc_hd__or2_1
*CAP
1 *121:A 7.97606e-05
2 *120:X 7.97606e-05
*RES
1 *120:X *121:A 19.9571
*END

*D_NET *9 0.00141237
*CONN
*I *120:A I *D sky130_fd_sc_hd__or2_1
*I *122:X O *D sky130_fd_sc_hd__clkbuf_1
*CAP
1 *120:A 0.000706183
2 *122:X 0.000706183
*RES
1 *122:X *120:A 36.2429
*END

*D_NET *10 0.00424494
*CONN
*I *118:A I *D sky130_fd_sc_hd__clkbuf_1
*I *120:B I *D sky130_fd_sc_hd__or2_1
*I *123:X O *D sky130_fd_sc_hd__buf_1
*CAP
1 *118:A 9.69892e-05
2 *120:B 0.0013151
3 *123:X 0.000710375
4 *10:10 0.00212247
*RES
1 *123:X *10:10 22.3357
2 *10:10 *120:B 37.8357
3 *10:10 *118:A 15.4786
*END

*D_NET *11 0.00115269
*CONN
*I *124:A I *D sky130_fd_sc_hd__clkbuf_4
*I *119:X O *D sky130_fd_sc_hd__clkbuf_1
*CAP
1 *124:A 0.000576343
2 *119:X 0.000576343
*RES
1 *119:X *124:A 34.8143
*END

*D_NET *12 0.00122922
*CONN
*I *125:A I *D sky130_fd_sc_hd__buf_2
*I *121:X O *D sky130_fd_sc_hd__clkbuf_1
*CAP
1 *125:A 0.00061461
2 *121:X 0.00061461
*RES
1 *121:X *125:A 36.3679
*END
