*SPEF "ieee 1481-1999"
*DESIGN "top"
*DATE "11:11:11 Fri 11 11, 1111"
*VENDOR "OpenRCX"
*PROGRAM "Parallel Extraction"
*VERSION "1.0"
*DESIGN_FLOW "NAME_SCOPE LOCAL" "PIN_CAP NONE"
*DIVIDER /
*DELIMITER :
*BUS_DELIMITER []
*T_UNIT 1 NS
*C_UNIT 1 PF
*R_UNIT 1 OHM
*L_UNIT 1 HENRY

*NAME_MAP
*3 detector_in[0]
*4 detector_in[1]
*5 phase_map_out[0]
*6 phase_map_out[1]
*7 _0_
*8 _1_
*9 net1
*10 net2
*11 net3
*12 net4
*13 FILLER_0_0_18
*14 FILLER_0_0_26
*15 FILLER_0_0_29
*16 FILLER_0_0_41
*17 FILLER_0_0_6
*18 FILLER_0_10_15
*19 FILLER_0_10_27
*20 FILLER_0_10_29
*21 FILLER_0_10_3
*22 FILLER_0_10_41
*23 FILLER_0_10_47
*24 FILLER_0_11_15
*25 FILLER_0_11_27
*26 FILLER_0_11_3
*27 FILLER_0_11_39
*28 FILLER_0_11_47
*29 FILLER_0_12_18
*30 FILLER_0_12_26
*31 FILLER_0_12_29
*32 FILLER_0_12_41
*33 FILLER_0_12_6
*34 FILLER_0_1_15
*35 FILLER_0_1_27
*36 FILLER_0_1_3
*37 FILLER_0_1_39
*38 FILLER_0_1_47
*39 FILLER_0_2_15
*40 FILLER_0_2_27
*41 FILLER_0_2_29
*42 FILLER_0_2_3
*43 FILLER_0_2_41
*44 FILLER_0_2_47
*45 FILLER_0_3_15
*46 FILLER_0_3_27
*47 FILLER_0_3_3
*48 FILLER_0_3_39
*49 FILLER_0_3_47
*50 FILLER_0_4_15
*51 FILLER_0_4_27
*52 FILLER_0_4_3
*53 FILLER_0_4_32
*54 FILLER_0_4_44
*55 FILLER_0_5_11
*56 FILLER_0_5_16
*57 FILLER_0_5_28
*58 FILLER_0_5_3
*59 FILLER_0_5_40
*60 FILLER_0_6_13
*61 FILLER_0_6_25
*62 FILLER_0_6_29
*63 FILLER_0_6_3
*64 FILLER_0_6_41
*65 FILLER_0_6_47
*66 FILLER_0_6_9
*67 FILLER_0_7_15
*68 FILLER_0_7_27
*69 FILLER_0_7_3
*70 FILLER_0_7_39
*71 FILLER_0_7_47
*72 FILLER_0_8_15
*73 FILLER_0_8_27
*74 FILLER_0_8_29
*75 FILLER_0_8_3
*76 FILLER_0_8_41
*77 FILLER_0_8_47
*78 FILLER_0_9_15
*79 FILLER_0_9_27
*80 FILLER_0_9_3
*81 FILLER_0_9_39
*82 FILLER_0_9_47
*83 PHY_0
*84 PHY_1
*85 PHY_10
*86 PHY_11
*87 PHY_12
*88 PHY_13
*89 PHY_14
*90 PHY_15
*91 PHY_16
*92 PHY_17
*93 PHY_18
*94 PHY_19
*95 PHY_2
*96 PHY_20
*97 PHY_21
*98 PHY_22
*99 PHY_23
*100 PHY_24
*101 PHY_25
*102 PHY_3
*103 PHY_4
*104 PHY_5
*105 PHY_6
*106 PHY_7
*107 PHY_8
*108 PHY_9
*109 TAP_26
*110 TAP_27
*111 TAP_28
*112 TAP_29
*113 TAP_30
*114 TAP_31
*115 TAP_32
*116 _2_
*117 _3_
*118 _4_
*119 _5_
*120 input1
*121 input2
*122 output3
*123 output4

*PORTS
detector_in[0] I
detector_in[1] I
phase_map_out[0] O
phase_map_out[1] O

*D_NET *3 0.00134172
*CONN
*P detector_in[0] I
*I *120:A I *D sky130_fd_sc_hd__clkbuf_1
*CAP
1 detector_in[0] 0.00067086
2 *120:A 0.00067086
*RES
1 detector_in[0] *120:A 15.18
*END

*D_NET *4 0.000449924
*CONN
*P detector_in[1] I
*I *121:A I *D sky130_fd_sc_hd__clkbuf_1
*CAP
1 detector_in[1] 0.000224962
2 *121:A 0.000224962
*RES
1 detector_in[1] *121:A 6.38543
*END

*D_NET *5 0.00125052
*CONN
*P phase_map_out[0] O
*I *122:X O *D sky130_fd_sc_hd__clkbuf_4
*CAP
1 phase_map_out[0] 0.00062526
2 *122:X 0.00062526
*RES
1 *122:X phase_map_out[0] 13.635
*END

*D_NET *6 0.0005058
*CONN
*P phase_map_out[1] O
*I *123:X O *D sky130_fd_sc_hd__clkbuf_4
*CAP
1 phase_map_out[1] 0.0002529
2 *123:X 0.0002529
*RES
1 *123:X phase_map_out[1] 5.94523
*END

*D_NET *7 0.00162012
*CONN
*I *117:A I *D sky130_fd_sc_hd__clkbuf_1
*I *116:X O *D sky130_fd_sc_hd__clkbuf_1
*CAP
1 *117:A 0.000740968
2 *116:X 0.000740968
3 *117:A *119:A 0
4 *117:A *122:A 0.00013818
*RES
1 *116:X *117:A 16.845
*END

*D_NET *8 0.00319994
*CONN
*I *119:A I *D sky130_fd_sc_hd__clkbuf_1
*I *118:X O *D sky130_fd_sc_hd__or2_1
*CAP
1 *119:A 0.00138192
2 *118:X 0.00138192
3 *119:A *118:B 0.000354049
4 *119:A *123:A 8.20514e-05
5 *117:A *119:A 0
*RES
1 *118:X *119:A 30.63
*END

*D_NET *9 0.00556074
*CONN
*I *118:A I *D sky130_fd_sc_hd__or2_1
*I *120:X O *D sky130_fd_sc_hd__clkbuf_1
*CAP
1 *118:A 0.00238518
2 *120:X 0.00238518
3 *118:A *123:A 0.000790375
*RES
1 *120:X *118:A 42.795
*END

*D_NET *10 0.00365334
*CONN
*I *118:B I *D sky130_fd_sc_hd__or2_1
*I *116:A I *D sky130_fd_sc_hd__clkbuf_1
*I *121:X O *D sky130_fd_sc_hd__clkbuf_1
*CAP
1 *118:B 0.000803371
2 *116:A 0.000771961
3 *121:X 7.43135e-05
4 *10:8 0.00164965
5 *119:A *118:B 0.000354049
*RES
1 *121:X *10:8 4.725
2 *10:8 *116:A 16.245
3 *10:8 *118:B 16.47
*END

*D_NET *11 0.00253771
*CONN
*I *122:A I *D sky130_fd_sc_hd__clkbuf_4
*I *117:X O *D sky130_fd_sc_hd__clkbuf_1
*CAP
1 *122:A 0.00119976
2 *117:X 0.00119976
3 *117:A *122:A 0.00013818
*RES
1 *117:X *122:A 26.85
*END

*D_NET *12 0.00342314
*CONN
*I *123:A I *D sky130_fd_sc_hd__clkbuf_4
*I *119:X O *D sky130_fd_sc_hd__clkbuf_1
*CAP
1 *123:A 0.00127536
2 *119:X 0.00127536
3 *118:A *123:A 0.000790375
4 *119:A *123:A 8.20514e-05
*RES
1 *119:X *123:A 26.76
*END
